36
C          0.96960        2.91890       -0.68720
C          0.00460        2.61440        0.19510
C          2.33640        3.21100       -0.31050
C         -1.33730        2.24680       -0.19530
C          3.18380        2.37320        0.31070
C         -2.32230        2.01580        0.68720
C          2.90700        1.00310        0.68720
C         -3.64710        1.57060        0.31060
C          2.61490        0.03470       -0.19540
C         -3.94930        0.41770       -0.31030
C          2.26210       -1.31130        0.19500
C         -3.01330       -0.62020       -0.68710
C          2.04310       -2.29920       -0.68720
C         -2.26630       -1.30280        0.19500
C          1.61280       -3.62880       -0.31040
C         -1.27730       -2.28160       -0.19540
C          0.46340       -3.94360        0.31090
C         -0.58470       -3.01870        0.68710
H          0.75530        2.97360       -1.75130
H          0.22660        2.60290        1.26010
H          2.68870        4.20340       -0.58110
H         -1.52280        2.12470       -1.26030
H          4.17210        2.73670        0.58150
H         -2.16530        2.17110        1.75140
H          2.96280        0.78960        1.75140
H         -4.45600        2.24490        0.58140
H          2.60220        0.25620       -1.26040
H         -4.98500        0.22680       -0.58080
H          2.14110       -1.49770        1.26000
H         -2.95450       -0.83400       -1.75110
H          2.19760       -2.14090       -1.75130
H         -2.36630       -1.10410        1.25990
H          2.29600       -4.43010       -0.58090
H         -1.07920       -2.38150       -1.26050
H          0.28390       -4.98110        0.58190
H         -0.79740       -2.96000        1.75140
