18
C         -0.48100        0.74480        0.00000
C         -0.56240       -0.71320        0.00020
C         -1.75790        1.17860       -0.00030
C         -1.96510       -1.08880        0.00000
C          0.66870        1.60890        0.00030
C          0.45100       -1.58850        0.00030
C         -2.66930        0.05180       -0.00010
C          1.95140        1.22210        0.00020
C          1.86730       -1.29960       -0.00020
C          2.49720       -0.11610       -0.00040
H         -2.09080        2.20560       -0.00040
H         -2.35750       -2.09240        0.00010
H          0.46620        2.67860        0.00070
H          0.22090       -2.65340        0.00040
H         -3.74370        0.14050       -0.00030
H          2.70720        2.00650        0.00050
H          2.49320       -2.19150       -0.00060
H          3.58670       -0.13930       -0.00080
