12
C       0.69542982      -1.20451978       0.00000000
C      -0.69542982      -1.20451978       0.00000000
C       1.39085964       0.00000000       0.00000000
C      -0.69542982       1.20451978       0.00000000
C       0.69542982       1.20451978       0.00000000
C      -1.39085964       0.00000000       0.00000000
H       1.23647506      -2.14163763       0.00000000
H      -1.23647506      -2.14163763       0.00000000
H       2.47295012       0.00000000       0.00000000
H      -1.23647506       2.14163763       0.00000000
H       1.23647506       2.14163763       0.00000000
H      -2.47295012       0.00000000       0.00000000
