22
C          0.57030       -0.36490        0.00100
C         -0.59840        0.29520        0.00100
C          1.85090        0.31090        0.00030
C         -1.88210       -0.37280        0.00020
C          3.07120       -0.24940        0.00010
C         -3.04970        0.28810        0.00030
C          4.35000        0.42560       -0.00070
C         -4.33150       -0.37930       -0.00070
C          5.51920       -0.22560       -0.00070
C         -5.50000        0.27210       -0.00070
H          0.58980       -1.45200        0.00070
H         -0.60900        1.38300        0.00110
H          1.79980        1.39980       -0.00020
H         -1.87310       -1.46060       -0.00060
H          3.12310       -1.33830        0.00060
H         -3.05920        1.37580        0.00110
H          4.34700        1.51180       -0.00120
H         -4.33910       -1.46590       -0.00160
H          6.45210        0.32830       -0.00130
H          5.57650       -1.30900       -0.00010
H         -6.43360       -0.28040       -0.00150
H         -5.55500        1.35570        0.00020
