6
C          0.93941       -0.01631        0.06648
H          0.37952        0.63364        0.73161
H          0.37952       -0.66625       -0.59864
C          2.27520       -0.01631        0.06648
H          2.83508        0.63364        0.73161
H          2.83508       -0.66625       -0.59864
