%mem=6GB
%chk=C:\Users\fo123\OneDrive - Imperial College London\ethene.chk
%nprocshared=8
# hf/3-21g geom=connectivity

Title Card Required

0 1
 C                 -1.78846153    0.26923077    0.00000000
 H                 -1.25529778   -0.65847415    0.00000000
 H                 -2.85846153    0.26923077    0.00000000
 C                 -1.11318722    1.44420806    0.00000000
 H                 -1.64635096    2.37191298    0.00000000
 H                 -0.04318722    1.44420806    0.00000000

 1 2 1.0 3 1.0 4 2.0
 2
 3
 4 5 1.0 6 1.0
 5
 6

