14
C         -0.59680        0.30620        0.00010
C          0.59680       -0.30630        0.00000
C         -1.85030       -0.41270        0.00000
C          1.85020        0.41270       -0.00010
C         -3.04410        0.19080        0.00000
C          3.04420       -0.19080        0.00000
H         -0.65040        1.39270        0.00000
H          0.65050       -1.39280        0.00000
H         -1.81390       -1.49880       -0.00010
H          1.81380        1.49880       -0.00020
H         -3.95470       -0.39900       -0.00020
H         -3.14310        1.27120        0.00010
H          3.95470        0.39910       -0.00010
H          3.14310       -1.27120        0.00020
