18
C         -0.63480        0.34690        0.00090
C          0.63470       -0.34750        0.00070
C         -1.81600       -0.28900        0.00090
C          1.81600        0.28880        0.00070
C         -3.08330        0.40530       -0.00080
C          3.08340       -0.40510       -0.00080
C         -4.26530       -0.22120       -0.00080
C          4.26520        0.22190       -0.00080
H         -0.60320        1.43430        0.00030
H          0.60340       -1.43480        0.00010
H         -1.84840       -1.37640        0.00130
H          1.84810        1.37620        0.00130
H         -3.06800        1.49190       -0.00210
H          3.06850       -1.49170       -0.00190
H         -5.18710        0.35090       -0.00210
H         -4.34320       -1.30340        0.00040
H          5.18730       -0.34980       -0.00200
H          4.34270        1.30410        0.00030
