24
C         -0.71990       -0.39300       -0.00060
C          0.71990       -0.39300       -0.00040
C         -1.41230        0.84610       -0.00030
C          1.41230        0.84610       -0.00020
C         -0.69570        2.04530       -0.00010
C          0.69540        2.04530       -0.00010
C         -1.51540       -1.56620       -0.00030
C          1.51540       -1.56610       -0.00030
C         -2.81730        0.88020        0.00040
C          2.81730        0.88020        0.00030
C         -2.91210       -1.51820        0.00020
C          2.91220       -1.51810        0.00030
C         -3.56310       -0.29430        0.00070
C          3.56330       -0.29430        0.00050
H         -1.21400        3.00240        0.00020
H          1.21380        3.00250        0.00020
H         -1.06040       -2.55340       -0.00040
H          1.06050       -2.55330       -0.00040
H         -3.34750        1.83090        0.00090
H          3.34740        1.83100        0.00060
H         -3.48580       -2.44050        0.00030
H          3.48580       -2.44040        0.00060
H         -4.64800       -0.25170        0.00120
H          4.64810       -0.25170        0.00090
